LAMMPS (29 Sep 2021 - Update 1)
package gpu 0
package gpu 1 neigh yes omp 8
############################Initialize the system###################
units		metal

#Apply boundary conditions
boundary        p p p

#Atom style and input positions file
atom_style      atomic
read_data /m100_work/IscrC_GF-Diam/alberto/Manual_dpgen_v2/Data/ML-FF-MD/3Fe110+3LG+3Fe110_vt-5GPa-800K/Step1/INPUT/3Fe110+3LG+3Fe110_vt-5GPa-800K_pos.data
Reading data file ...
  orthogonal box = (0.0000000 0.0000000 0.0000000) to (14.200250 12.049320 30.000000)
  reading atoms ...
  270 atoms

#Potentials definitions
pair_style  deepmd   /m100_work/IscrC_GF-Diam/alberto/Manual_dpgen_v2/Data/Training/OUTPUT/Step5/compressed.pb
pair_coeff	* *
newton on

#Options on neighbor list
neighbor	2 bin
neigh_modify	every 1 delay 0 check yes

#Groups definitions
group           sub_bot id <> 1 90
90 atoms in group sub_bot
group           layer_bot id <> 1 30
30 atoms in group layer_bot
group           thermo_bot id <> 31 90
60 atoms in group thermo_bot
group           intercalate id <> 181 270
90 atoms in group intercalate
group           sub_top id <> 91 180
90 atoms in group sub_top
group           layer_top id <> 151 180
30 atoms in group layer_top
group           thermo_top id <> 91 150
60 atoms in group thermo_top
group           init_vel union thermo_bot intercalate thermo_top
210 atoms in group init_vel

#Fix forces acting on atoms without external forces
fix Rforces all store/force

# fixed bottom atom layer and free top atom layer
fix  press_on_layer_top  layer_top  addforce  0.0 0.0 -0.177990524354
fix             fixes_on_layer_bot layer_bot setforce 0.0 0.0 0.0  ## Freeze atoms
fix_modify      press_on_layer_top energy yes

########################Relaxation section#######################
#Write trajectory file
dump dump_relax all xyz 1 /m100_work/IscrC_GF-Diam/alberto/Manual_dpgen_v2/Data/ML-FF-MD/3Fe110+3LG+3Fe110_vt-5GPa-800K/Step5/OUTPUT/3Fe110+3LG+3Fe110_vt-5GPa-800K_relax.xyz
dump_modify     dump_relax element Fe C O H

minimize 0.0 1.0e-6 100000 1000000

CITE-CITE-CITE-CITE-CITE-CITE-CITE-CITE-CITE-CITE-CITE-CITE-CITE

Your simulation uses code contributions which should be cited:

- GPU package (short-range, long-range and three-body potentials):

@Article{Brown11,
 author = {W. M. Brown, P. Wang, S. J. Plimpton, A. N. Tharrington},
 title = {Implementing Molecular Dynamics on Hybrid High Performance Computers - Short Range Forces},
 journal = {Comp.~Phys.~Comm.},
 year =    2011,
 volume =  182,
 pages =   {898--911}
}

@Article{Brown12,
 author = {W. M. Brown, A. Kohlmeyer, S. J. Plimpton, A. N. Tharrington},
 title = {Implementing Molecular Dynamics on Hybrid High Performance Computers - Particle-Particle Particle-Mesh},
 journal = {Comp.~Phys.~Comm.},
 year =    2012,
 volume =  183,
 pages =   {449--459}
}

@Article{Brown13,
 author = {W. M. Brown, Y. Masako},
 title = {Implementing Molecular Dynamics on Hybrid High Performance Computers â€“ Three-Body Potentials},
 journal = {Comp.~Phys.~Comm.},
 year =    2013,
 volume =  184,
 pages =   {2785--2793}
}

@Article{Trung15,
 author = {T. D. Nguyen, S. J. Plimpton},
 title = {Accelerating dissipative particle dynamics simulations for soft matter systems},
 journal = {Comput.~Mater.~Sci.},
 year =    2015,
 volume =  100,
 pages =   {173--180}
}

@Article{Trung17,
 author = {T. D. Nguyen},
 title = {GPU-accelerated Tersoff potentials for massively parallel Molecular Dynamics simulations},
 journal = {Comp.~Phys.~Comm.},
 year =    2017,
 volume =  212,
 pages =   {113--122}
}

@Article{Nikolskiy19,
 author = {V. Nikolskiy, V. Stegailov},
 title = {GPU acceleration of four-site water models in LAMMPS},
 journal = {Proceeding of the International Conference on Parallel Computing (ParCo 2019), Prague, Czech Republic},
 year =    2019
}

- USER-DEEPMD package:

@article{Wang_ComputPhysCommun_2018_v228_p178,
  author = {Wang, Han and Zhang, Linfeng and Han, Jiequn and E, Weinan},
  doi = {10.1016/j.cpc.2018.03.016},
  url = {https://doi.org/10.1016/j.cpc.2018.03.016},
  year = 2018,
  month = {jul},
  publisher = {Elsevier {BV}},
  volume = 228,
  journal = {Comput. Phys. Commun.},
  title = {{DeePMD-kit: A deep learning package for many-body potential energy representation and molecular dynamics}},
  pages = {178--184}
}

CITE-CITE-CITE-CITE-CITE-CITE-CITE-CITE-CITE-CITE-CITE-CITE-CITE

  update every 1 steps, delay 0 steps, check yes
Step Temp E_pair E_mol TotEng Press
0            0   -633026.33            0   -632943.12    12313.731
Loop time of 16.2913 on 8 procs for 771 steps with 270 atoms

Minimization stats:
  Stopping criterion = force tolerance
  Energy initial, next-to-last, final =
  Force two-norm initial, final = 3.3086872 9.9379403e-07
  Force max component initial, final = 0.63789642 1.8046807e-07
  Final line search alpha, max atom move = 1.0000000 1.8046807e-07
  Iterations, force evaluations = 771 1533

Dangerous bu
undump d
undump dump_relax
########################Thermalization section###################
# NVT with NH thermostat lower slab
fix  termostat_top  thermo_top  nvt  temp  800.0 800.0 $(100.*dt)
fix  termostat_top  thermo_top  nvt  temp  800.0 800.0 0.10000000000000000555
fix  termostat_bot  thermo_bot  nvt  temp  800.0 800.0 $(100.*dt)
fix  termostat_bot  thermo_bot  nvt  temp  800.0 800.0 0.10000000000000000555
fix             nve_int intercalate nve
fix_modify      press_on_layer_top energy no

compute         temp_sub_top sub_top temp/com
compute         temp_sub_bot sub_bot temp/com
compute         temp_int intercalate temp/com

#Write trajectory file
dump dump_thermo all xyz 100 /m100_work/IscrC_GF-Diam/alberto/Manual_dpgen_v2/Data/ML-FF-MD/3Fe110+3LG+3Fe110_vt-5GPa-800K/Step5/OUTPUT/3Fe110+3LG+3Fe110_vt-5GPa-800K_therm.xyz
dump_modify     dump_thermo element Fe C O H

thermo          100
thermo_style   custom step time pe c_temp_sub_top c_temp_sub_bot c_temp_int
#Run the sliding system
timestep	0.0001
velocity init_vel create 800 16971 dist gaussian
velocity        layer_bot set 0.0 0.0 0.0
velocity        layer_top set NULL NULL NULL
run             50000 start 0
Step Time PotEng c_temp_sub_top c_temp_sub_bot c_temp_int
771            0   -633030.29    505.74055     509.4863    849.31978
Averages over the last 46 of 91 rows, steps 5200 to 9700:
PotEng c_temp_sub_top c_temp_sub_bot c_temp_int
-633013 540.668 528.401 578.538
   20700       1.9929   -633015.21    444.52833    617.639.44971
 .45548
Loop time of 667.075 on 8 procs for 50000 steps with 270 atoms

undump dump_thermo
#########################Sliding dynamic section######################
fix 		slider layer_top move linear 2.0 NULL NULL

#Write trajectory file
dump dump_dyn_pos all xyz 100 /m100_work/IscrC_GF-Diam/alberto/Manual_dpgen_v2/Data/ML-FF-MD/3Fe110+3LG+3Fe110_vt-5GPa-800K/Step5/OUTPUT/3Fe110+3LG+3Fe110_vt-5GPa-800K_dynpos.xyz
dump_modify     dump_dyn_pos element Fe C O H
dump_modify     dump_dyn_pos sort id

dump dump_dyn_Rforces all custom 100 /m100_work/IscrC_GF-Diam/alberto/Manual_dpgen_v2/Data/ML-FF-MD/3Fe110+3LG+3Fe110_vt-5GPa-800K/Step5/OUTPUT/3Fe110+3LG+3Fe110_vt-5GPa-800K_dynforces.xyz element f_Rforces[*]
dump_modify     dump_dyn_Rforces element Fe C O H
dump_modify     dump_dyn_Rforces sort id

thermo          100
thermo_style   custom step time pe c_temp_sub_top c_temp_sub_bot c_temp_int

#Run the sliding system
run 625 start 0
Step Time PotEng c_temp_sub_top c_temp_sub_bot c_temp_int
50771            5   -633016.23    495.54491     471.2416    684.93307
Loop time of 8.38643 on 8 procs for 625 steps with 270 atoms

write_restart /m100_work/IscrC_GF-Diam/alberto/Manual_dpgen_v2/Data/ML-FF-MD/3Fe110+3LG+3Fe110_vt-5GPa-800K/Step5/OUTPUT/3Fe110+3LG+3Fe110_vt-5GPa-800K.restart
System init for write_restart ...
1
